@<TRIPOS>MOLECULE
MOL
   69    73     1     0     0
SMALL
No Charge or Current Charge


@<TRIPOS>ATOM
      1 C1           9.9480     3.5820     0.0720 C.ar       1 MOL       0.000000
      2 N1           9.4660     2.3800    -1.9690 N.ar       1 MOL       0.000000
      3 O1          -0.3560     0.7780    -1.1210 O.2        1 MOL       0.000000
      4 C2           8.8130     3.0000     0.6430 C.ar       1 MOL       0.000000
      5 N2           4.5740     0.1000     1.3910 N.ar       1 MOL       0.000000
      6 C3           8.0050     2.0790    -0.0770 C.ar       1 MOL       0.000000
      7 N3           5.9660     0.7210    -0.3580 N.ar       1 MOL       0.000000
      8 C4           8.3770     1.8080    -1.3970 C.ar       1 MOL       0.000000
      9 N4           4.1130    -0.5290    -0.8820 N.3        1 MOL       0.000000
     10 C5          10.2020     3.2300    -1.2490 C.ar       1 MOL       0.000000
     11 N5          -0.7090    -1.3270    -0.2970 N.am       1 MOL       0.000000
     12 C6           6.7720     1.3990     0.5240 C.ar       1 MOL       0.000000
     13 N6          -7.5990     0.7620    -0.8520 N.4        1 MOL       0.000000
     14 C7           6.4960     1.4260     1.8330 C.ar       1 MOL       0.000000
     15 N7          -9.5050     1.7060     0.9900 N.3        1 MOL       0.000000
     16 C8           5.3450     0.7410     2.2660 C.ar       1 MOL       0.000000
     17 C9           4.8710     0.0920     0.1020 C.ar       1 MOL       0.000000
     18 C10          3.0950    -1.3600    -0.4950 C.ar       1 MOL       0.000000
     19 C11          3.3590    -2.6580    -0.0080 C.ar       1 MOL       0.000000
     20 C12          2.2640    -3.4250     0.3560 C.ar       1 MOL       0.000000
     21 C13          0.9270    -2.9360     0.2440 C.ar       1 MOL       0.000000
     22 C14          0.6750    -1.6740    -0.2380 C.ar       1 MOL       0.000000
     23 C15          1.7740    -0.8920    -0.6260 C.ar       1 MOL       0.000000
     24 C16         -1.1100    -0.1530    -0.8370 C.2        1 MOL       0.000000
     25 C17         -2.5600     0.0270    -1.1110 C.ar       1 MOL       0.000000
     26 C18         -2.9680     1.0000    -2.0650 C.ar       1 MOL       0.000000
     27 C19         -4.3480     1.2480    -2.3770 C.ar       1 MOL       0.000000
     28 C20         -5.3290     0.4850    -1.7140 C.ar       1 MOL       0.000000
     29 C21         -4.9360    -0.4940    -0.7580 C.ar       1 MOL       0.000000
     30 C22         -3.5630    -0.7410    -0.4330 C.ar       1 MOL       0.000000
     31 C23         -6.7540     0.7490    -2.0320 C.3        1 MOL       0.000000
     32 C24         -7.1640     1.7850     0.1130 C.3        1 MOL       0.000000
     33 C25         -8.0590     1.7370     1.4100 C.3        1 MOL       0.000000
     34 C26        -10.2880     1.6640     2.1990 C.3        1 MOL       0.000000
     35 C27         -9.8990     0.6470     0.0770 C.3        1 MOL       0.000000
     36 C28         -9.0450     0.7900    -1.2080 C.3        1 MOL       0.000000
     37 C29          4.7430    -3.2470     0.1370 C.3        1 MOL       0.000000
     38 H1          10.5840     4.2610     0.6200 H          1 MOL       0.000000
     39 H2           8.5440     3.2570     1.6570 H          1 MOL       0.000000
     40 H3           7.7800     1.1220    -1.9790 H          1 MOL       0.000000
     41 H4          11.0610     3.6770    -1.7280 H          1 MOL       0.000000
     42 H5           7.1320     1.9520     2.5300 H          1 MOL       0.000000
     43 H6           5.0870     0.7360     3.3140 H          1 MOL       0.000000
     44 H7           4.3360    -0.3490    -1.9440 H          1 MOL       0.000000
     45 H8           2.4270    -4.4230     0.7370 H          1 MOL       0.000000
     46 H9           0.1020    -3.5670     0.5400 H          1 MOL       0.000000
     47 H10          1.6010     0.0930    -1.0340 H          1 MOL       0.000000
     48 H11         -1.4670    -2.0180     0.1010 H          1 MOL       0.000000
     49 H12         -2.2090     1.5760    -2.5740 H          1 MOL       0.000000
     50 H13         -4.6270     2.0000    -3.1010 H          1 MOL       0.000000
     51 H14         -5.7010    -1.0710    -0.2590 H          1 MOL       0.000000
     52 H15         -3.2910    -1.4850     0.3020 H          1 MOL       0.000000
     53 H16         -6.8450     1.7310    -2.5210 H          1 MOL       0.000000
     54 H17         -7.1300    -0.0330    -2.7070 H          1 MOL       0.000000
     55 H18         -7.4470    -0.1930    -0.3290 H          1 MOL       0.000000
     56 H19         -6.1170     1.6020     0.3950 H          1 MOL       0.000000
     57 H20         -7.2520     2.7820    -0.3440 H          1 MOL       0.000000
     58 H21         -7.8170     0.8340     1.9900 H          1 MOL       0.000000
     59 H22         -7.8650     2.6290     2.0230 H          1 MOL       0.000000
     60 H23        -11.3580     1.6400     1.9430 H          1 MOL       0.000000
     61 H24        -10.0760     2.5590     2.8040 H          1 MOL       0.000000
     62 H25        -10.0290     0.7630     2.7740 H          1 MOL       0.000000
     63 H26         -9.7180    -0.3300     0.5490 H          1 MOL       0.000000
     64 H27        -10.9680     0.7470    -0.1610 H          1 MOL       0.000000
     65 H28         -9.2840     1.7440    -1.7000 H          1 MOL       0.000000
     66 H29         -9.2710    -0.0420    -1.8920 H          1 MOL       0.000000
     67 H30          4.6650    -4.2680     0.5380 H          1 MOL       0.000000
     68 H31          5.3350    -2.6270     0.8250 H          1 MOL       0.000000
     69 H32          5.2340    -3.2750    -0.8470 H          1 MOL       0.000000
@<TRIPOS>BOND
     1     1     4 ar  
     2     1    10 ar  
     3     1    38 1   
     4     2     8 ar  
     5     2    10 ar  
     6     3    24 2   
     7     4     6 ar  
     8     4    39 1   
     9     5    16 ar  
    10     5    17 ar  
    11     6     8 ar  
    12     6    12 1   
    13     7    12 ar  
    14     7    17 ar  
    15     8    40 1   
    16     9    17 1   
    17     9    18 1   
    18     9    44 1   
    19    10    41 1   
    20    11    22 1   
    21    11    24 am  
    22    11    48 1   
    23    12    14 ar  
    24    13    31 1   
    25    13    32 1   
    26    13    36 1   
    27    13    55 1   
    28    14    16 ar  
    29    14    42 1   
    30    15    33 1   
    31    15    34 1   
    32    15    35 1   
    33    16    43 1   
    34    18    19 ar  
    35    18    23 ar  
    36    19    20 ar  
    37    19    37 1   
    38    20    21 ar  
    39    20    45 1   
    40    21    22 ar  
    41    21    46 1   
    42    22    23 ar  
    43    23    47 1   
    44    24    25 1   
    45    25    26 ar  
    46    25    30 ar  
    47    26    27 ar  
    48    26    49 1   
    49    27    28 ar  
    50    27    50 1   
    51    28    29 ar  
    52    28    31 1   
    53    29    30 ar  
    54    29    51 1   
    55    30    52 1   
    56    31    53 1   
    57    31    54 1   
    58    32    33 1   
    59    32    56 1   
    60    32    57 1   
    61    33    58 1   
    62    33    59 1   
    63    34    60 1   
    64    34    61 1   
    65    34    62 1   
    66    35    36 1   
    67    35    63 1   
    68    35    64 1   
    69    36    65 1   
    70    36    66 1   
    71    37    67 1   
    72    37    68 1   
    73    37    69 1   
@<TRIPOS>SUBSTRUCTURE
     1 MOL         1 TEMP              0 ****  ****    0 ROOT
